
Checking parameters for BSIM 4.8 model xm1:sky130_fd_pr__nfet_01v8_lvt__model.7
Warning: TNOIMOD=1 is not supported and may be removed from future version.

Note: No compatibility mode selected!


Circuit: * nmos id–vgs sweep (sky130) 

 BSIM4 models (Berkeley Short Channel IGFET Model-4)
      model xm1:sky130_fd_pr__nfe

       vth0              0.525348
         u0               0.27473
       rdsw               15007.8
    nfactor               4.74778
       vsat               6537.88
       eta0                  0.08
      delta             0.0999998

Doing analysis at TEMP = -196.150000 and TNOM = -196.150000

 Reference value :  0.00000e+00
No. of Data Rows : 186
Doing analysis at TEMP = -196.150000 and TNOM = -196.150000


No. of Data Rows : 186
Doing analysis at TEMP = -196.150000 and TNOM = -196.150000


No. of Data Rows : 186
Doing analysis at TEMP = -196.150000 and TNOM = -196.150000


No. of Data Rows : 186
Doing analysis at TEMP = -196.150000 and TNOM = -196.150000


No. of Data Rows : 186
Doing analysis at TEMP = -196.150000 and TNOM = -196.150000


No. of Data Rows : 186
Note: Simulation executed from .control section 
