
Checking parameters for BSIM 4.8 model xm1:sky130_fd_pr__nfet_01v8_lvt__model.2
Warning: Eta0 = -0.130793 is negative.
Warning: TNOIMOD=1 is not supported and may be removed from future version.

Note: No compatibility mode selected!


Circuit: * nmos id–vgs sweep (sky130)

 BSIM4 models (Berkeley Short Channel IGFET Model-4)
      model xm1:sky130_fd_pr__nfe

       vth0              0.737649
         u0               0.10598
       rdsw               158.481
    nfactor               8.76599
       vsat                152198
       eta0             -0.290082
      delta             0.0577825

Doing analysis at TEMP = -196.150000 and TNOM = -196.150000

 Reference value :  0.00000e+00
No. of Data Rows : 186
Doing analysis at TEMP = -196.150000 and TNOM = -196.150000


No. of Data Rows : 186
Doing analysis at TEMP = -196.150000 and TNOM = -196.150000


No. of Data Rows : 186
Doing analysis at TEMP = -196.150000 and TNOM = -196.150000


No. of Data Rows : 186
Doing analysis at TEMP = -196.150000 and TNOM = -196.150000


No. of Data Rows : 186
Note: Simulation executed from .control section 
